# generated using pymatgen
data_MnSiO3
_symmetry_space_group_name_H-M   P-1
_cell_length_a   6.81943100
_cell_length_b   7.70909994
_cell_length_c   16.26500929
_cell_angle_alpha   92.16421080
_cell_angle_beta   96.39317567
_cell_angle_gamma   94.87071769
_symmetry_Int_Tables_number   2
_chemical_formula_structural   MnSiO3
_chemical_formula_sum   'Mn14 Si14 O42'
_cell_volume   845.72935960
_cell_formula_units_Z   14
loop_
 _symmetry_equiv_pos_site_id
 _symmetry_equiv_pos_as_xyz
  1  'x, y, z'
  2  '-x, -y, -z'
loop_
 _atom_type_symbol
 _atom_type_oxidation_number
  Mn2+  2.0
  Si4+  4.0
  O2-  -2.0
loop_
 _atom_site_type_symbol
 _atom_site_label
 _atom_site_symmetry_multiplicity
 _atom_site_fract_x
 _atom_site_fract_y
 _atom_site_fract_z
 _atom_site_occupancy
  Mn2+  Mn0  2  0.04385500  0.06758500  0.60473600  1
  Mn2+  Mn1  2  0.06701900  0.53081000  0.10758600  1
  Mn2+  Mn2  2  0.15939700  0.61174400  0.30749400  1
  Mn2+  Mn3  2  0.17334900  0.14668300  0.81243200  1
  Mn2+  Mn4  2  0.20387400  0.69018000  0.51771000  1
  Mn2+  Mn5  2  0.26546900  0.23965100  0.00781900  1
  Mn2+  Mn6  2  0.37924200  0.85418600  0.70803700  1
  Si4+  Si7  2  0.11869500  0.20383000  0.25395800  1
  Si4+  Si8  2  0.21804800  0.83730500  0.97057500  1
  Si4+  Si9  2  0.23781800  0.28681900  0.43612500  1
  Si4+  Si10  2  0.31561600  0.91552900  0.16380500  1
  Si4+  Si11  2  0.32257100  0.45624700  0.69030000  1
  Si4+  Si12  2  0.42192300  0.54204500  0.88098700  1
  Si4+  Si13  2  0.49328700  0.81858500  0.41031000  1
  O2-  O14  2  0.03019400  0.69507300  0.97863000  1
  O2-  O15  2  0.05567300  0.16955400  0.47224500  1
  O2-  O16  2  0.07166500  0.39533800  0.22512500  1
  O2-  O17  2  0.07286800  0.92385900  0.72486500  1
  O2-  O18  2  0.13770500  0.30770800  0.69269200  1
  O2-  O19  2  0.15236200  0.76493700  0.18996900  1
  O2-  O20  2  0.17268900  0.01843900  0.92763600  1
  O2-  O21  2  0.17819800  0.48447300  0.42999800  1
  O2-  O22  2  0.23559000  0.11026400  0.18304700  1
  O2-  O23  2  0.25012200  0.38761500  0.89474300  1
  O2-  O24  2  0.25641600  0.84152200  0.40610400  1
  O2-  O25  2  0.27892700  0.21705600  0.34139600  1
  O2-  O26  2  0.28000300  0.62126300  0.63477100  1
  O2-  O27  2  0.33201800  0.90141800  0.06345000  1
  O2-  O28  2  0.35280400  0.01715200  0.60329900  1
  O2-  O29  2  0.35432400  0.47869300  0.07931400  1
  O2-  O30  2  0.38176700  0.73665400  0.92153400  1
  O2-  O31  2  0.41194900  0.56070900  0.77933000  1
  O2-  O32  2  0.44503700  0.26368200  0.49739200  1
  O2-  O33  2  0.46320700  0.07557400  0.78750100  1
  O2-  O34  2  0.49493900  0.65167500  0.34078100  1
