# generated using pymatgen
data_SiO2
_symmetry_space_group_name_H-M   C2/c
_cell_length_a   7.13633683
_cell_length_b   12.39429008
_cell_length_c   7.13312616
_cell_angle_alpha   90.00000000
_cell_angle_beta   119.45897426
_cell_angle_gamma   90.00000000
_symmetry_Int_Tables_number   15
_chemical_formula_structural   SiO2
_chemical_formula_sum   'Si16 O32'
_cell_volume   549.35043063
_cell_formula_units_Z   16
loop_
 _symmetry_equiv_pos_site_id
 _symmetry_equiv_pos_as_xyz
  1  'x, y, z'
  2  '-x, -y, -z'
  3  '-x, y, -z+1/2'
  4  'x, -y, z+1/2'
  5  'x+1/2, y+1/2, z'
  6  '-x+1/2, -y+1/2, -z'
  7  '-x+1/2, y+1/2, -z+1/2'
  8  'x+1/2, -y+1/2, z+1/2'
loop_
 _atom_type_symbol
 _atom_type_oxidation_number
  Si4+  4.0
  O2-  -2.0
loop_
 _atom_site_type_symbol
 _atom_site_label
 _atom_site_symmetry_multiplicity
 _atom_site_fract_x
 _atom_site_fract_y
 _atom_site_fract_z
 _atom_site_occupancy
  Si4+  Si0  8  0.18270881  0.35854133  0.57252769  1
  Si4+  Si1  8  0.21550792  0.90793205  0.45886582  1
  O2-  O2  8  0.07543438  0.37443170  0.06006232  1
  O2-  O3  8  0.20782580  0.03824469  0.47653744  1
  O2-  O4  8  0.23370571  0.85368360  0.67216278  1
  O2-  O5  4  0.00000000  0.13453882  0.75000000  1
  O2-  O6  4  0.25000000  0.25000000  0.50000000  1
