# generated using pymatgen
data_HfO2
_symmetry_space_group_name_H-M   P2_1/c
_cell_length_a   5.09417501
_cell_length_b   5.15064470
_cell_length_c   5.27621049
_cell_angle_alpha   90.00000000
_cell_angle_beta   99.55883373
_cell_angle_gamma   90.00000000
_symmetry_Int_Tables_number   14
_chemical_formula_structural   HfO2
_chemical_formula_sum   'Hf4 O8'
_cell_volume   136.51657937
_cell_formula_units_Z   4
loop_
 _symmetry_equiv_pos_site_id
 _symmetry_equiv_pos_as_xyz
  1  'x, y, z'
  2  '-x, -y, -z'
  3  '-x, y+1/2, -z+1/2'
  4  'x, -y+1/2, z+1/2'
loop_
 _atom_type_symbol
 _atom_type_oxidation_number
  Hf4+  4.0
  O2-  -2.0
loop_
 _atom_site_type_symbol
 _atom_site_label
 _atom_site_symmetry_multiplicity
 _atom_site_fract_x
 _atom_site_fract_y
 _atom_site_fract_z
 _atom_site_occupancy
  Hf4+  Hf0  4  0.27613578  0.04193532  0.20790733  1
  O2-  O1  4  0.06836078  0.16924112  0.84625278  1
  O2-  O2  4  0.44799782  0.74252595  0.97857799  1
